##CIF_1.1

data_sm_global
#Used dictionaries
loop_
_audit_conform_dict_name
_audit_conform_dict_version
_audit_conform_dict_location
cif_core.dic 	2.4.2 	.
cif_pd.dic 		1.0.1 	.
cif_sm.dic 		0.1 	'redaktion.landolt-boernstein(at)springer.com'

#About this content and reference
_sm_credits_copyright
;PAULING FILE Multinaries Edition - 2012. SpringerMaterials Release 2014.
http://www.paulingfile.com
Unique LPF ID Number SD0315056
Project Coordinator: Shuichi Iwata
Section-Editors: Karin Cenzual (Crystal Structures), Hiroaki Okamoto (Phase 
Diagrams), Fritz Hulliger (Physical Properties)
(c) Springer & Material Phases Data System (MPDS), Switzerland & National 
Institute for Materials Science (NIMS), Japan 2014.
(Data generated pre-2002: (c) Springer & MPDS & NIMS; 
post-2001: (c) Springer & MPDS)
All Rights Reserved. Version 2014.06.
;

_audit_creation_method
;This data have been compiled from the crystallographic datasheet for 
"LiMnPO4 (LiMn[PO4]) Crystal Structure" 
taken from SpringerMaterials (sm_isp_sd_0315056).
;

_publ_section_references
;Mercier M., Gareyte J., Bertaut E.F.: <i>Une nouvelle famille de corps magn&#x00e9;to&#x00e9;lectriques: LiMPO<sub>4</sub> (M= Mn, Co, Ni)</i>. Comptes Rendus des Seances de l'Academie des Sciences, Serie B: Sciences Physiques <b>264</b> (1967) 979-982 (in French).
;

#Phase classification
_sm_phase_labels				'LiMn[PO4]'
_chemical_name_mineral			'lithiophilite/sicklerite'
_sm_chemical_compound_class		'orthophosphate'
_sm_phase_prototype				'CaMg[SiO4 ]'
_sm_pearson_symbol				'oP28'
_symmetry_Int_Tables_number		62
_sm_sample_details
;powder (determination of cell parameters)
;
_sm_measurement_details
;film (determination of cell parameters), 
X-rays (determination of cell parameters)
;
_sm_interpretation_details
;cell parameters determined and structure type assigned; magnetic structure determined
;

data_sm_isp_SD0315056-standardized_unitcell
#Cell Parameters
_cell_length_a					10.46
_cell_length_b					6.1
_cell_length_c					4.74
_cell_angle_alpha				90
_cell_angle_beta				90
_cell_angle_gamma				90
_sm_length_ratio_ab				1.715
_sm_length_ratio_bc				1.287
_sm_length_ratio_ca				0.453
_cell_volume 					302.4
_symmetry_space_group_name_H-M	'Pnma'
_symmetry_Int_Tables_number		62
_cell_formula_units_Z			4
_sm_cell_transformation
;No transformation from published to standardized cell parameters necessary.
;

#Atom Coordinates
loop_
_atom_site_label
_atom_site_type_symbol
_atom_site_Wyckoff_symbol
_sm_site_symmetry
_atom_site_fract_x
_atom_site_fract_y
_atom_site_fract_z
_atom_site_occupancy
_sm_coordination_number
_sm_atomic_environment_type
O1 'O' .8d .1 0.353 0.0467 0.2272 1 ? '?'
O2 'O' .4c ..m. 0.0506 0.25 0.2477 1 ? '?'
Mn1 'Mn' .4c ..m. 0.2229 0.25 0.5226 1 ? '?'
P1 'P' .4c ..m. 0.4177 0.25 0.0889 1 ? '?'
O3 'O' .4c ..m. 0.4227 0.25 0.7526 1 ? '?'
Li1 'Li' .4a .-1 0 0 0 1 ? '?'

_sm_atom_site_transformation
;No transformation from published to standardized cell parameters necessary.
Atom coordinates assigned by editor.
;

data_sm_isp_SD0315056-published_cell
#Cell Parameters
_cell_length_a					10.46
_cell_length_b					6.1
_cell_length_c					4.74
_cell_angle_alpha				90
_cell_angle_beta				90
_cell_angle_gamma				90
_sm_length_ratio_ab				1.715
_sm_length_ratio_bc				1.287
_sm_length_ratio_ca				0.453
_cell_volume 					302.44
_symmetry_space_group_name_H-M	'Pnma'
_symmetry_Int_Tables_number		62
_cell_formula_units_Z			4

#Atom Coordinates
loop_
_atom_site_label
_atom_site_type_symbol
_atom_site_Wyckoff_symbol
_sm_site_symmetry
_atom_site_fract_x
_atom_site_fract_y
_atom_site_fract_z
_atom_site_occupancy
_sm_coordination_number
_sm_atomic_environment_type
? ? ? ? ? ? ? ? ? ?

data_sm_isp_SD0315056-niggli_reduced_cell
#Cell Parameters
_cell_length_a					4.74
_cell_length_b					6.1
_cell_length_c					10.46
_cell_angle_alpha				90
_cell_angle_beta				90
_cell_angle_gamma				90
_sm_length_ratio_ab				0.777
_sm_length_ratio_bc				0.583
_sm_length_ratio_ca				2.207
_cell_volume 					302.44
_symmetry_space_group_name_H-M	''
_symmetry_Int_Tables_number		?
_cell_formula_units_Z			4

#Atom Coordinates
loop_
_atom_site_label
_atom_site_type_symbol
_atom_site_Wyckoff_symbol
_sm_site_symmetry
_atom_site_fract_x
_atom_site_fract_y
_atom_site_fract_z
_atom_site_occupancy
_sm_coordination_number
_sm_atomic_environment_type
? ? ? ? ? ? ? ? ? ?

